Version 4
SHEET 1 1684 680
WIRE 1104 -704 1040 -704
WIRE 1296 -704 1168 -704
WIRE 1040 -592 1040 -704
WIRE 1104 -592 1040 -592
WIRE 1296 -592 1296 -704
WIRE 1296 -592 1184 -592
WIRE 1424 -592 1296 -592
WIRE 1616 -592 1504 -592
WIRE 160 -576 144 -576
WIRE 256 -576 224 -576
WIRE 512 -576 352 -576
WIRE 352 -528 352 -576
WIRE 384 -528 352 -528
WIRE 512 -512 512 -576
WIRE 512 -512 448 -512
WIRE 720 -512 512 -512
WIRE -160 -496 -240 -496
WIRE -80 -496 -160 -496
WIRE 144 -496 144 -576
WIRE 144 -496 -80 -496
WIRE 160 -496 144 -496
WIRE 256 -496 256 -576
WIRE 256 -496 240 -496
WIRE 384 -496 256 -496
WIRE -80 -464 -80 -496
WIRE -160 -448 -160 -496
WIRE 160 -416 144 -416
WIRE 256 -416 224 -416
WIRE 512 -416 352 -416
WIRE 1296 -416 1296 -592
WIRE 1296 -416 1232 -416
WIRE 1616 -416 1616 -592
WIRE 720 -400 720 -512
WIRE 848 -400 720 -400
WIRE 1040 -400 1040 -592
WIRE 1040 -400 928 -400
WIRE 1072 -400 1040 -400
WIRE 1344 -384 1296 -384
WIRE 352 -368 352 -416
WIRE 384 -368 352 -368
WIRE 1040 -368 912 -368
WIRE 1072 -368 1040 -368
WIRE 1344 -368 1344 -384
WIRE -160 -352 -160 -384
WIRE -80 -352 -80 -384
WIRE -80 -352 -160 -352
WIRE 144 -352 144 -416
WIRE 144 -352 -80 -352
WIRE 512 -352 512 -416
WIRE 512 -352 448 -352
WIRE 1296 -352 1232 -352
WIRE 144 -336 144 -352
WIRE 160 -336 144 -336
WIRE 256 -336 256 -416
WIRE 256 -336 240 -336
WIRE 384 -336 256 -336
WIRE -160 -320 -160 -352
WIRE -80 -320 -80 -352
WIRE 912 -304 912 -368
WIRE 160 -256 144 -256
WIRE 256 -256 224 -256
WIRE 512 -256 352 -256
WIRE -160 -224 -160 -256
WIRE -80 -224 -80 -240
WIRE -80 -224 -160 -224
WIRE 144 -224 144 -256
WIRE 144 -224 -80 -224
WIRE 352 -208 352 -256
WIRE 384 -208 352 -208
WIRE -160 -192 -160 -224
WIRE 512 -192 512 -256
WIRE 512 -192 448 -192
WIRE 1040 -192 1040 -368
WIRE 1104 -192 1040 -192
WIRE 1296 -192 1296 -352
WIRE 1296 -192 1184 -192
WIRE 1424 -192 1296 -192
WIRE 1616 -192 1616 -352
WIRE 1616 -192 1504 -192
WIRE -80 -176 -80 -224
WIRE 144 -176 144 -224
WIRE 160 -176 144 -176
WIRE 256 -176 256 -256
WIRE 256 -176 240 -176
WIRE 384 -176 256 -176
WIRE 1040 -96 1040 -192
WIRE 1088 -96 1040 -96
WIRE 1296 -96 1296 -192
WIRE 1296 -96 1152 -96
WIRE -240 256 -240 -496
FLAG -240 336 0
FLAG 720 352 0
FLAG 848 352 0
FLAG 416 -544 VCC
FLAG 848 272 VCC
FLAG 416 -480 VEE
FLAG 720 272 VEE
FLAG -80 -96 0
FLAG -160 -128 0
FLAG 416 -384 VCC
FLAG 416 -320 VEE
FLAG 416 -224 VCC
FLAG 416 -160 VEE
FLAG 912 -224 0
FLAG 1344 -288 0
FLAG 1136 -464 VCC
FLAG 1136 -304 VEE
SYMBOL voltage 720 256 R0
WINDOW 123 0 0 Left 0
WINDOW 39 0 0 Left 0
SYMATTR InstName V1
SYMATTR Value -2.8
SYMBOL voltage 848 256 R0
WINDOW 123 0 0 Left 0
WINDOW 39 0 0 Left 0
SYMATTR InstName V2
SYMATTR Value 3.3
SYMBOL voltage -240 240 R0
WINDOW 3 24 152 Left 2
WINDOW 123 24 124 Left 2
WINDOW 39 0 0 Left 0
SYMATTR Value SINE(0 1 1000k)
SYMATTR Value2 AC 1
SYMATTR InstName V3
SYMBOL res -96 -192 R0
SYMATTR InstName R2
SYMATTR Value 60k
SYMBOL res -96 -336 R0
SYMATTR InstName R3
SYMATTR Value 190k
SYMBOL res -96 -480 R0
SYMATTR InstName R4
SYMATTR Value 750k
SYMBOL cap -176 -448 R0
SYMATTR InstName C2
SYMATTR Value 18p
SYMBOL cap -176 -192 R0
SYMATTR InstName C4
SYMATTR Value 220p
SYMBOL cap -176 -320 R0
SYMATTR InstName C1
SYMATTR Value 68p
SYMBOL res 256 -512 R90
WINDOW 0 0 56 VBottom 2
WINDOW 3 32 56 VTop 2
SYMATTR InstName R1
SYMATTR Value 1k
SYMBOL cap 224 -592 R90
WINDOW 0 0 32 VBottom 2
WINDOW 3 32 32 VTop 2
SYMATTR InstName C3
SYMATTR Value 0
SYMBOL Opamps\\opamp2 416 -576 R0
SYMATTR InstName U1
SYMATTR Value OPA2810
SYMBOL res 256 -352 R90
WINDOW 0 0 56 VBottom 2
WINDOW 3 32 56 VTop 2
SYMATTR InstName R5
SYMATTR Value 1k
SYMBOL cap 224 -432 R90
WINDOW 0 0 32 VBottom 2
WINDOW 3 32 32 VTop 2
SYMATTR InstName C5
SYMATTR Value 0
SYMBOL Opamps\\opamp2 416 -416 R0
SYMATTR InstName U2
SYMATTR Value OPA2810
SYMBOL res 256 -192 R90
WINDOW 0 0 56 VBottom 2
WINDOW 3 32 56 VTop 2
SYMATTR InstName R6
SYMATTR Value 1k
SYMBOL cap 224 -272 R90
WINDOW 0 0 32 VBottom 2
WINDOW 3 32 32 VTop 2
SYMATTR InstName C6
SYMATTR Value 0
SYMBOL Opamps\\opamp2 416 -256 R0
SYMATTR InstName U3
SYMATTR Value OPA2810
SYMBOL res 1200 -608 R90
WINDOW 0 0 56 VBottom 2
WINDOW 3 32 56 VTop 2
SYMATTR InstName R7
SYMATTR Value 470
SYMBOL res 1200 -208 R90
WINDOW 0 0 56 VBottom 2
WINDOW 3 32 56 VTop 2
SYMATTR InstName R8
SYMATTR Value 470
SYMBOL res 944 -416 R90
WINDOW 0 0 56 VBottom 2
WINDOW 3 32 56 VTop 2
SYMATTR InstName R9
SYMATTR Value 470
SYMBOL res 928 -208 R180
WINDOW 0 36 76 Left 2
WINDOW 3 36 40 Left 2
SYMATTR InstName R10
SYMATTR Value 470
SYMBOL res 1520 -608 R90
WINDOW 0 0 56 VBottom 2
WINDOW 3 32 56 VTop 2
SYMATTR InstName R11
SYMATTR Value 49.9
SYMBOL res 1520 -208 R90
WINDOW 0 0 56 VBottom 2
WINDOW 3 32 56 VTop 2
SYMATTR InstName R12
SYMATTR Value 49.9
SYMBOL cap 1600 -416 R0
SYMATTR InstName C7
SYMATTR Value 100p
SYMBOL voltage 1344 -384 R0
WINDOW 123 0 0 Left 0
WINDOW 39 0 0 Left 0
SYMATTR InstName V4
SYMATTR Value 0.9
SYMBOL AutoGenerated\\ad8132 1200 -352 R0
SYMATTR InstName U4
SYMBOL cap 1168 -720 R90
WINDOW 0 0 32 VBottom 2
WINDOW 3 32 32 VTop 2
SYMATTR InstName C8
SYMATTR Value 33p
SYMBOL cap 1152 -112 R90
WINDOW 0 0 32 VBottom 2
WINDOW 3 32 32 VTop 2
SYMATTR InstName C9
SYMATTR Value 33p
TEXT 0 456 Left 2 !.ac dec 20 1k 100000k
TEXT 0 424 Left 2 !;tran 0.1ms
TEXT 8 496 Left 2 !.include OPA2810.LIB
TEXT 8 528 Left 2 !.include ad8132.lib
